FoamFile
{
    version     2.0;
    format      ascii;
    class       dictionary;
    location    "constant";
    object      thermophysicalProperties;
}

thermoType
{
    type            heRhoThermo;
    mixture         pureMixture;
    transport       const;
    thermo          hConst;
    equationOfState perfectGas;
    specie          specie;
    energy          sensibleEnthalpy;
}

mixture
{
    specie
    {
        molWeight       24.0999;
    }
    thermodynamics
    {
        Cp              1004.4;
        Hf              0;
    }
    transport
    {
        mu              1.85e-5;
        Pr              0.705;
    }
}
