/*--------------------------------*- C++ -*----------------------------------*\
| =========                 |                                                 |
| \\      /  F ield         | OpenFOAM: The Open Source CFD Toolbox           |
|  \\    /   O peration     | Version:  2406                                  |
|   \\  /    A nd           | Website:  www.openfoam.com                      |
|    \\/     M anipulation  |                                                 |
\*---------------------------------------------------------------------------*/
FoamFile
{
    version     2.0;
    format      ascii;
    arch        "LSB;label=32;scalar=64";
    class       polyBoundaryMesh;
    location    "constant/polyMesh";
    object      boundary;
}
// * * * * * * * * * * * * * * * * * * * * * * * * * * * * * * * * * * * * * //

6
(
    inlet
    {
        type            patch;
        nFaces          160;
        startFace       126072;
    }
    outlet
    {
        type            patch;
        nFaces          160;
        startFace       126232;
    }
    bottom
    {
        type            wall;
        inGroups        1(wall);
        nFaces          384;
        startFace       126392;
    }
    top
    {
        type            wall;
        inGroups        1(wall);
        nFaces          408;
        startFace       126776;
    }
    frontAndBack
    {
        type            empty;
        inGroups        1(empty);
        nFaces          126720;
        startFace       127184;
    }
    flapHole
    {
        type            wall;
        inGroups        1(wall);
        nFaces          184;
        startFace       253904;
    }
)

// ************************************************************************* //
