/*--------------------------------*- C++ -*----------------------------------*\
| =========                 |                                                 |
| \\      /  F ield         | OpenFOAM: The Open Source CFD Toolbox           |
|  \\    /   O peration     | Version:  2406                                  |
|   \\  /    A nd           | Website:  www.openfoam.com                      |
|    \\/     M anipulation  |                                                 |
\*---------------------------------------------------------------------------*/

FoamFile
{
    version     2.0;
    format      ascii;
    class       volScalarField;
    location    "0";
    object      p_rgh;
}

dimensions      [1 -1 -2 0 0 0 0];

internalField   uniform 103500;

boundaryField
{
    inlet
    {
        type            zeroGradient;
    }

    outlet
    {
        type            fixedValue;
        value           $internalField;
    }

    bottom
    {
        type            zeroGradient;
    }

    top
    {
        type            zeroGradient;
    }

    flapHole
    {
        type            zeroGradient;
    }


    frontAndBack
    {
        type            empty;
    }
}


