FoamFile
{
    version     2.0;
    format      ascii;
    class       volScalarField;
    location    "0";
    object      T;
}

dimensions      [0 0 0 1 0 0 0];

internalField   uniform 300;

boundaryField
{
    inlet
    {
        type            zeroGradient;
    }

    outlet
    {
        type            zeroGradient;
    }

    bottom
    {
        type            zeroGradient;
    }

    top
    {
        type            zeroGradient;
    }

    flapHole
    {
        type            fixedGradient;
        gradient        uniform 0;
    }

    frontAndBack
    {
        type            empty;
    }
}
